tests/data/power_flow/non-floating-ground-no-error/linear/wye-wye_n/asym_output.json
{
  "version": "1.0",
  "type": "asym_output",
  "is_batch": false,
  "attributes": {},
  "data": {
    "node": [
      {"id": 1, "energized": 1, "u_pu": [0.99999999999465872, 0.99999999999462963, 0.99999999999149392], "u": [5773.5026918654194, 5773.502691865252, 5773.5026918471476], "u_angle": [1.9018343922107268e-12, -2.0943951023949317, 2.0943951023933036], "p": [810.67249419876862, 1674.9688130844117, 1979.4263730093239], "q": [1707.2319302973244, 856.67290955924602, 2030.4549884710209]},
      {"id": 2, "energized": 1, "u_pu": [1.3142756138609182, 1.3177399790612834, 0.49670473770853646], "u": [75.879737945196169, 76.079753163296374, 28.677261402378598], "u_angle": [-0.33604110346097343, -1.7667358359507808, 2.089060543089492], "p": [-1727.3203891894725, -1736.4386524164222, -986.86238584841738], "q": [-1727.3203891895234, -1736.43865241652, -986.86238584839941]}
    ],
    "transformer": [
      {"id": 4, "energized": 1, "loading": 0.066069043612792019, "p_from": [810.67249419876862, 1674.9688130844117, 1979.4263730093239], "q_from": [1707.2319302973244, 856.67290955924602, 2030.4549884710209], "i_from": [0.32734526528034608, 0.32585621056607728, 0.49114792760965092], "s_from": [1889.9287702654776, 1881.3317088642573, 2835.6438821494671], "p_to": [-1727.3203891894725, -1736.4386524164222, -986.86238584841738], "q_to": [-1727.3203891895234, -1736.43865241652, -986.86238584839941], "i_to": [32.193046353423931, 32.277905623660068, 48.666926408353987], "s_to": [2442.7999209553614, 2455.6950924762341, 1395.6341702626896]}
    ],
    "source": [
      {"id": 3, "energized": 1, "p": [810.67249419876862, 1674.9688130844117, 1979.4263730093239], "q": [1707.2319302973244, 856.67290955924602, 2030.4549884710207], "i": [0.32734526528034608, 0.32585621056607733, 0.49114792760965092], "s": [1889.9287702654776, 1881.3317088642573, 2835.6438821494667], "pf": [0.42894341149422988, 0.89031020164730812, 0.69805182007159683]}
    ],
    "asym_load": [
      {"id": 21, "energized": 1, "p": [1727.3203891894932, 1736.4386524164318, 986.86238584842397], "q": [1727.3203891894932, 1736.4386524164318, 986.86238584842397], "i": [32.193046353423838, 32.277905623659336, 48.666926408354769], "s": [2442.7999209553541, 2455.6950924761786, 1395.6341702627117], "pf": [0.70710678118654757, 0.70710678118654746, 0.70710678118654746]}
    ]
  }
}